% PAL NPROCS 64 END

! DFT CAM-B3LYP D3BJ def2-TZVP def2/J TightSCF RIJCOSX

%maxcore 2000
%tddft
 NRoots 25
 MaxDim 5
end

* xyz 0 1
Ni   -10.91619    0.00728   -0.00171
Ni     5.45179   -9.45733   -0.00170
Ni     5.46441    9.45007   -0.00171
N    -10.90342    1.29025   -1.39225
N      4.33434  -10.08782   -1.39223
N      6.56914    8.79756   -1.39224
N    -10.90243    1.40848    1.28130
N      4.23143  -10.14599    1.28132
N      6.67098    8.73754    1.28132
N    -10.91135   -1.27539    1.38900
N      6.56020   -8.81182    1.38901
N      4.35117   10.08723    1.38901
N    -10.89627   -1.39408   -1.28449
N      6.65543   -8.73941   -1.28450
N      4.24083   10.13347   -1.28449
C    -10.67236    3.27223   -2.54757
C      2.50235  -10.87870   -2.54755
C      8.17011    7.60646   -2.54753
C    -10.45780    2.59052   -1.29890
C      2.98545  -10.35200   -1.29889
C      7.47240    7.76150   -1.29886
C     -9.99723    3.21036   -0.12543
C      2.21837  -10.26300   -0.12544
C      7.77881    7.05268   -0.12540
C    -10.33855    2.66616    1.12063
C      2.86031  -10.28654    1.12065
C      7.47821    7.62034    1.12064
C    -10.30338    3.34345    2.39025
C      2.25617  -10.59479    2.39023
C      8.04725    7.25129    2.39026
C     -9.06999    4.35763   -0.25105
C      0.76118  -10.03365   -0.25105
C      8.30878    5.67604   -0.25103
C     -7.93138    4.14340   -1.05273
C      0.37740   -8.94047   -1.05274
C      7.55394    4.79709   -1.05274
C     -9.15691    5.58019    0.43794
C     -0.25413  -10.72025    0.43793
C      9.41107    5.14004    0.43793
C     -6.87947    5.04674   -1.06468
C     -0.93088   -8.48121   -1.06468
C      7.81036    3.43445   -1.06466
C     -8.09770    6.49003    0.42292
C     -1.57169  -10.25787    0.42291
C      9.66940    3.76783    0.42291
C     -6.91210    6.21334   -0.27963
C     -1.92487   -9.09273   -0.27961
C      8.83697    2.87940   -0.27961
C    -10.92442   -2.52362   -3.29616
C      7.64770   -8.19899   -3.29615
C      3.27670   10.72263   -3.29616
C    -11.25040   -1.29704   -2.61627
C      6.74848   -9.09462   -2.61627
C      4.50195   10.39171   -2.61625
C    -11.61475   -0.11550   -3.27743
C      5.90742  -10.00095   -3.27741
C      5.70738   10.11648   -3.27740
C    -11.36545    1.12876   -2.69016
C      4.70519  -10.40715   -2.69016
C      6.66023    9.27837   -2.69018
C    -11.29691    2.38903   -3.38498
C      3.57949  -10.97792   -3.38500
C      7.71739    8.58886   -3.38499
C    -12.09299   -0.21413   -4.68004
C      6.23194  -10.36580   -4.68003
C      5.86105   10.57994   -4.68003
C    -13.29710   -0.88412   -4.95234
C      7.41423  -11.07358   -4.95231
C      5.88288   11.95773   -4.95229
C    -11.35990    0.31417   -5.75509
C      5.40788   -9.99508   -5.75508
C      5.95201    9.68093   -5.75509
C    -13.76556   -1.00543   -6.26101
C      7.75349  -11.41858   -6.26100
C      6.01209   12.42404   -6.26098
C    -11.82711    0.18953   -7.06394
C      5.74941  -10.33735   -7.06395
C      6.07770   10.14783   -7.06395
C    -13.03336   -0.46638   -7.32115
C      6.92058  -11.05403   -7.32117
C      6.11282   11.52042   -7.32114
C    -10.68918   -3.25775    2.54505
C      8.16596   -7.62827    2.54503
C      2.52329   10.88608    2.54503
C    -10.46551   -2.57575    1.29810
C      7.46345   -7.77553    1.29810
C      3.00210   10.35133    1.29809
C     -9.99849   -3.19592    0.12714
C      7.76691   -7.06096    0.12714
C      2.23152   10.25683    0.12714
C    -10.33383   -2.65205   -1.12088
C      7.46361   -7.62331   -1.12089
C      2.87017   10.27531   -1.12089
C    -10.29298   -3.32939   -2.39046
C      8.02984   -7.24927   -2.39045
C      2.26315   10.57868   -2.39046
C     -9.07388   -4.34465    0.25767
C      8.29948   -5.68589    0.25769
C      0.77439   10.03052    0.25769
C     -7.94205   -4.13627    1.07062
C      7.55312   -4.80991    1.07066
C      0.38894    8.94617    1.07066
C     -9.15667   -5.56439   -0.43700
C      9.39723   -5.14772   -0.43696
C     -0.24056   10.71211   -0.43694
C     -6.89227   -5.04207    1.08878
C      7.81266   -3.44787    1.08878
C     -0.92038    8.48992    1.08876
C     -8.09906   -6.47573   -0.41707
C      9.65766   -3.77614   -0.41706
C     -1.55860   10.25185   -0.41706
C     -6.91937   -6.20466    0.29760
C      8.83303   -2.89004    0.29758
C     -1.91367    9.09467    0.29759
C    -10.93980    2.53802    3.29284
C      3.27191  -10.74311    3.29286
C      7.66787    8.20514    3.29285
C    -11.26361    1.31172    2.61113
C      4.49582  -10.41044    2.61114
C      6.76781    9.09874    2.61112
C    -11.63450    0.13057    3.26977
C      5.70422  -10.14115    3.26975
C      5.93038   10.01057    3.26975
C    -11.38227   -1.11392    2.68386
C      6.65583   -9.30038    2.68387
C      4.72645   10.41430    2.68388
C    -11.31968   -2.37475    3.37824
C      7.71640   -8.61573    3.37826
C      3.60324   10.99046    3.37826
C    -12.12496    0.23168    4.66789
C      5.86181  -10.61640    4.66791
C      6.26316   10.38470    4.66789
C    -13.32508    0.91360    4.92891
C      5.87130  -11.99668    4.92891
C      7.45376   11.08307    4.92891
C    -11.40771   -0.30382    5.75005
C      5.96692   -9.72748    5.75008
C      5.44078   10.03125    5.75006
C    -13.80416    1.04081    6.23308
C      6.00071  -12.47511    6.23309
C      7.80339   11.43435    6.23310
C    -11.88568   -0.17342    7.05445
C      6.09304  -10.20656    7.05450
C      5.79263   10.38000    7.05448
C    -13.08705    0.49559    7.30037
C      6.11438  -11.58148    7.30038
C      6.97267   11.08593    7.30039
H    -10.42810    4.31443   -2.72990
H      1.47763  -11.18820   -2.72990
H      8.95044    6.87374   -2.72992
H     -9.86870    4.32003    2.56977
H      1.19307  -10.70658    2.56975
H      8.67562    6.38652    2.56979
H     -7.85895    3.21849   -1.62649
H      1.14221   -8.41529   -1.62649
H      6.71673    5.19684   -1.62648
H    -10.05698    5.81632    1.00652
H     -0.00861  -11.61778    1.00652
H     10.06560    5.80144    1.00654
H     -5.99909    4.83481   -1.67332
H     -1.18752   -7.61278   -1.67332
H      7.18660    2.77799   -1.67329
H     -8.17017    7.40471    1.01505
H     -2.32762  -10.77794    1.01505
H     10.49778    3.37318    1.01505
H    -11.09591   -2.70943   -4.35171
H      7.89438   -8.25463   -4.35170
H      3.20155   10.96406   -4.35171
H    -11.65200    2.56470   -4.39489
H      3.60491  -11.37327   -4.39490
H      8.04710    8.80859   -4.39488
H    -13.86832   -1.30338   -4.12235
H      8.06295  -11.35861   -4.12233
H      5.80544   12.66204   -4.12230
H    -10.40557    0.80500   -5.55892
H      4.50566   -9.41403   -5.55894
H      5.89994    8.60904   -5.55894
H    -14.70777   -1.52185   -6.45245
H      8.67183  -11.97634   -6.45245
H      6.03594   13.49821   -6.45241
H    -11.24056    0.59933   -7.88812
H      5.10124  -10.03430   -7.88814
H      6.13928    9.43497   -7.88816
H    -13.39838   -0.56175   -8.34503
H      7.18567  -11.32247   -8.34503
H      6.21269   11.88423   -8.34501
H    -10.44702   -4.30016    2.72883
H      8.94760   -6.89732    2.72886
H      1.49944   11.19743    2.72887
H     -9.85818   -4.30614   -2.56854
H      8.65831   -6.38434   -2.56856
H      1.19986   10.69055   -2.56854
H     -7.87259   -3.21406    1.64902
H      6.71970   -5.21087    1.64904
H      1.15291    8.42486    1.64902
H    -10.05200   -5.79701   -1.01434
H     10.04634   -5.80675   -1.01435
H      0.00562   11.60377   -1.01436
H     -6.01753   -4.83485    1.70715
H      7.19585   -2.79395    1.70715
H     -1.17829    7.62878    1.70714
H     -8.16765   -7.38692   -1.01501
H     10.48106   -3.37990   -1.01498
H     -2.31346   10.76682   -1.01499
H    -11.11609    2.72377    4.34764
H      3.19917  -10.98871    4.34764
H      7.91689    8.26493    4.34764
H    -11.68330   -2.55142    4.38491
H      8.05127   -8.84236    4.38489
H      3.63206   11.39377    4.38490
H    -13.88450    1.33788    4.09345
H      5.78360  -12.69326    4.09340
H      8.10088   11.35543    4.09343
H    -10.45659   -0.80438    5.56325
H      5.92492   -8.65352    5.56328
H      4.53172    9.45788    5.56324
H    -14.74247    1.56741    6.41575
H      6.01380  -13.55102    6.41573
H      8.72860   11.98364    6.41576
H    -11.31091   -0.58848    7.88425
H      6.16510   -9.50125    7.88433
H      5.14579   10.08973    7.88429
H    -13.45992    0.59655    8.32090
H      6.21330  -11.95489    8.32092
H      7.24656   11.35832    8.32094
C     -5.68289    7.02186   -0.14104
C     -3.23966   -8.43246   -0.14108
C      8.92254    1.41060   -0.14106
C     -4.45393    6.34313   -0.05320
C     -3.26635   -7.02878   -0.05324
C      7.72027    0.68564   -0.05323
C     -5.65865    8.42552   -0.06800
C     -4.46741   -9.11332   -0.06803
C     10.12603    0.68775   -0.06799
C     -3.26041    7.03087    0.09744
C     -4.45871   -6.33903    0.09741
C      7.71910   -0.69185    0.09741
C     -4.45455    9.11919    0.07264
C     -5.67020   -8.41739    0.07259
C     10.12473   -0.70185    0.07263
C     -3.22954    8.43561    0.16433
C     -5.69069   -7.01469    0.16436
C      8.92022   -1.42095    0.16436
H     -4.44332    5.25269   -0.08312
H     -2.32729   -6.47440   -0.08312
H      6.77064    1.22170   -0.08316
H     -6.59405    8.98434   -0.14094
H     -4.48366  -10.20279   -0.14096
H     11.07767    1.21844   -0.14092
H     -2.32368    6.47359    0.14215
H     -4.44445   -5.24916    0.14213
H      6.76810   -1.22443    0.14211
H     -4.46760   10.20967    0.12892
H     -6.60807   -8.97392    0.12888
H     11.07566   -1.23580    0.12893
*

